network/glm/Elermorevale/subs/HP00004880GTX00000001.glm



object transformer {
      name HP00004880GTX00000001_TX;
      phases ABC;
      from HP00004880GTX00000001;
      to HP00004880GTX00000001_LV;
      configuration HP00004880GTX00000001_config;
      };



object meter {
      name HP00004880GTX00000001_LV;
      phases ABCN;
      nominal_voltage  240;
      };


object switch {
      name HP00004880GTX00000001_LV-HP00004880LDI00004880_T1;
      phases ABCN;
      from HP00004880GTX00000001_LV;
      to HP00004880LDI00004880_T1;
      status CLOSED;
      };



object meter {
      name HP00004880LDI00004880_T1;
      phases ABCN;
      nominal_voltage  240;
      };


object fuse {
      name HP00004880LDI00004880;
      phases ABCN;
      from HP00004880LDI00004880_T1;
      to HP00004880LDI00004880_T2;
      phase_A_status GOOD;
      phase_B_status GOOD;
      phase_C_status GOOD;
      current_limit  10000 A;
      mean_replacement_time 3600;
      };



object meter {
      name HP00004880LDI00004880_T2;
      phases ABCN;
      nominal_voltage  240;
      };


object switch {
      name HP00004880LDI00004880_T2-FDR_4880_LV_NODE_017;
      phases ABCN;
      from HP00004880LDI00004880_T2;
      to FDR_4880_LV_NODE_017;
      status CLOSED;
      };



object meter {
      name FDR_4880_LV_NODE_017;
      phases ABCN;
      nominal_voltage  240;
      };


object overhead_line {
      name FDR_4880_LV_NODE_017-FDR_4880_LV_NODE_018_1;
      phases ABCN;
      from FDR_4880_LV_NODE_017;
      to FDR_4880_LV_NODE_018_1;
      length 68.9 m;
      configuration conf_OHLine_51060;
      };



object meter {
      name FDR_4880_LV_NODE_018_1;
      phases ABCN;
      nominal_voltage  240;
      };


object overhead_line {
      name FDR_4880_LV_NODE_018_1-FDR_4880_LV_NODE_019_2;
      phases ABCN;
      from FDR_4880_LV_NODE_018_1;
      to FDR_4880_LV_NODE_019_2;
      length 45.7 m;
      configuration conf_OHLine_51101;
      };



object meter {
      name FDR_4880_LV_NODE_019_2;
      phases ABCN;
      nominal_voltage  240;
      };


object overhead_line {
      name FDR_4880_LV_NODE_019_2-FDR_4880_LV_SP_5213465;
      phases BN;
      from FDR_4880_LV_NODE_019_2;
      to FDR_4880_LV_SP_5213465;
      length 14.9 m;
      configuration conf_OHLine_600;
      };



object meter {
      name FDR_4880_LV_SP_5213465;
      phases BN;
      nominal_voltage  240;
      };


object load {
      name LOAD_8490184;
      parent FDR_4880_LV_SP_5213465;
      phases BN;
      nominal_voltage  240;
      base_power_B Load_4880.result;
      power_fraction_B 1;
      current_fraction_B 0;
      impedance_fraction_B 0;
      power_pf_B L_pf_Head80784.output;
      current_pf_B 1;
      impedance_pf_B 1;
      
      // Customer Trial Appended Data //
      ausgrid_sa1 11103123334;
      ausgrid_annual_consumption 16111.059697;
      ausgrid_annual_consumption_with_control_load 19820.809697;
      ausgrid_simple_cell 27;
      ausgrid_elec_band_residential 3;
      ausgrid_elec_band_business 0;
      ausgrid_unit 0;
      ausgrid_income_band 1;
      ausgrid_gas_band 1;
      ausgrid_climate_zone 5;
      ausgrid_controlled_load 1;
      ausgrid_generation 0;
      };


object load {
      name LOAD_8490186;
      parent FDR_4880_LV_SP_5213465;
      phases BN;
      nominal_voltage  240;
      base_power_B Load_4880.result;
      power_fraction_B 1;
      current_fraction_B 0;
      impedance_fraction_B 0;
      power_pf_B L_pf_Head80784.output;
      current_pf_B 1;
      impedance_pf_B 1;
      
      // Customer Trial Appended Data //
      ausgrid_sa1 11103123334;
      ausgrid_annual_consumption 4189.2257143;
      ausgrid_annual_consumption_with_control_load 4189.2257143;
      ausgrid_simple_cell 25;
      ausgrid_elec_band_residential 1;
      ausgrid_elec_band_business 0;
      ausgrid_unit 0;
      ausgrid_income_band 1;
      ausgrid_gas_band 1;
      ausgrid_climate_zone 5;
      ausgrid_controlled_load 0;
      ausgrid_generation 1;
      };


object inverter {
      name DG_8490186;
      parent FDR_4880_LV_SP_5213465;
      phases BN;
      generator_mode CONSTANT_PF;
      generator_status ONLINE;
      inverter_type PWM;
      power_factor 0.9;
      rated_power 10000;
      inverter_efficiency 0.95;
      };


object solar {
      name SOLAR_8490186;
      parent DG_8490186;
      phases BN;
      generator_status ONLINE;
      weather ElermoreClimate;
      panel_type SINGLE_CRYSTAL_SILICON;
      generator_mode CONSTANT_PF;
      area 30.5 m^2;
      tilt_angle 17;
      efficiency 0.14;
      orientation_azimuth 330;
      orientation  FIXED_AXIS;
      SOLAR_TILT_MODEL  SOLPOS;
      SOLAR_POWER_MODEL  DEFAULT;
      };


object overhead_line {
      name FDR_4880_LV_NODE_019_2-FDR_4880_LV_SP_5213466;
      phases AN;
      from FDR_4880_LV_NODE_019_2;
      to FDR_4880_LV_SP_5213466;
      length 29.8 m;
      configuration conf_OHLine_600;
      };



object meter {
      name FDR_4880_LV_SP_5213466;
      phases AN;
      nominal_voltage  240;
      };


object load {
      name LOAD_8490244;
      parent FDR_4880_LV_SP_5213466;
      phases AN;
      nominal_voltage  240;
      base_power_A Load_4880.result;
      power_fraction_A 1;
      current_fraction_A 0;
      impedance_fraction_A 0;
      power_pf_A L_pf_Head80784.output;
      current_pf_A 1;
      impedance_pf_A 1;
      
      // Customer Trial Appended Data //
      ausgrid_sa1 11103123334;
      ausgrid_annual_consumption 4157.032967;
      ausgrid_annual_consumption_with_control_load 6314.7362637;
      ausgrid_simple_cell 25;
      ausgrid_elec_band_residential 1;
      ausgrid_elec_band_business 0;
      ausgrid_unit 0;
      ausgrid_income_band 1;
      ausgrid_gas_band 1;
      ausgrid_climate_zone 5;
      ausgrid_controlled_load 1;
      ausgrid_generation 1;
      };


object inverter {
      name DG_8490244;
      parent FDR_4880_LV_SP_5213466;
      phases AN;
      generator_mode CONSTANT_PF;
      generator_status ONLINE;
      inverter_type PWM;
      power_factor 0.9;
      rated_power 10000;
      inverter_efficiency 0.95;
      };


object solar {
      name SOLAR_8490244;
      parent DG_8490244;
      phases AN;
      generator_status ONLINE;
      weather ElermoreClimate;
      panel_type SINGLE_CRYSTAL_SILICON;
      generator_mode CONSTANT_PF;
      area 11.712 m^2;
      tilt_angle 24;
      efficiency 0.14;
      orientation_azimuth 330;
      orientation  FIXED_AXIS;
      SOLAR_TILT_MODEL  SOLPOS;
      SOLAR_POWER_MODEL  DEFAULT;
      };


object overhead_line {
      name FDR_4880_LV_NODE_019_2-FDR_4880_LV_SP_5335451;
      phases CN;
      from FDR_4880_LV_NODE_019_2;
      to FDR_4880_LV_SP_5335451;
      length 19.0 m;
      configuration conf_OHLine_600;
      };



object meter {
      name FDR_4880_LV_SP_5335451;
      phases CN;
      nominal_voltage  240;
      };


object load {
      name LOAD_8490104;
      parent FDR_4880_LV_SP_5335451;
      phases CN;
      nominal_voltage  240;
      base_power_C Load_4880.result;
      power_fraction_C 1;
      current_fraction_C 0;
      impedance_fraction_C 0;
      power_pf_C L_pf_Head80784.output;
      current_pf_C 1;
      impedance_pf_C 1;
      
      // Customer Trial Appended Data //
      ausgrid_sa1 11103123334;
      ausgrid_annual_consumption 7484.6027273;
      ausgrid_annual_consumption_with_control_load 7484.6027273;
      ausgrid_simple_cell 26;
      ausgrid_elec_band_residential 2;
      ausgrid_elec_band_business 0;
      ausgrid_unit 0;
      ausgrid_income_band 1;
      ausgrid_gas_band 1;
      ausgrid_climate_zone 5;
      ausgrid_controlled_load 0;
      ausgrid_generation 0;
      };


object overhead_line {
      name FDR_4880_LV_NODE_019_2-FDR_4880_LV_NODE_020_1;
      phases ABCN;
      from FDR_4880_LV_NODE_019_2;
      to FDR_4880_LV_NODE_020_1;
      length 51.6 m;
      configuration conf_OHLine_51101;
      };



object meter {
      name FDR_4880_LV_NODE_020_1;
      phases ABCN;
      nominal_voltage  240;
      };


object overhead_line {
      name FDR_4880_LV_NODE_020_1-FDR_4880_LV_SP_5213473;
      phases BN;
      from FDR_4880_LV_NODE_020_1;
      to FDR_4880_LV_SP_5213473;
      length 29.4 m;
      configuration conf_OHLine_600;
      };



object meter {
      name FDR_4880_LV_SP_5213473;
      phases BN;
      nominal_voltage  240;
      };


object load {
      name LOAD_8490276;
      parent FDR_4880_LV_SP_5213473;
      phases BN;
      nominal_voltage  240;
      base_power_B Load_4880.result;
      power_fraction_B 1;
      current_fraction_B 0;
      impedance_fraction_B 0;
      power_pf_B L_pf_Head80784.output;
      current_pf_B 1;
      impedance_pf_B 1;
      
      // Customer Trial Appended Data //
      ausgrid_sa1 11103123334;
      ausgrid_annual_consumption 6317.1515567;
      ausgrid_annual_consumption_with_control_load 8099.6515567;
      ausgrid_simple_cell 26;
      ausgrid_elec_band_residential 2;
      ausgrid_elec_band_business 0;
      ausgrid_unit 0;
      ausgrid_income_band 1;
      ausgrid_gas_band 1;
      ausgrid_climate_zone 5;
      ausgrid_controlled_load 1;
      ausgrid_generation 0;
      };


object overhead_line {
      name FDR_4880_LV_NODE_020_1-FDR_4880_LV_SP_5213474;
      phases BN;
      from FDR_4880_LV_NODE_020_1;
      to FDR_4880_LV_SP_5213474;
      length 25.5 m;
      configuration conf_OHLine_600;
      };



object meter {
      name FDR_4880_LV_SP_5213474;
      phases BN;
      nominal_voltage  240;
      };


object load {
      name LOAD_8490220;
      parent FDR_4880_LV_SP_5213474;
      phases BN;
      nominal_voltage  240;
      base_power_B Load_4880.result;
      power_fraction_B 1;
      current_fraction_B 0;
      impedance_fraction_B 0;
      power_pf_B L_pf_Head80784.output;
      current_pf_B 1;
      impedance_pf_B 1;
      
      // Customer Trial Appended Data //
      ausgrid_sa1 11103123334;
      ausgrid_annual_consumption 3348.3939394;
      ausgrid_annual_consumption_with_control_load 5898.5151515;
      ausgrid_simple_cell 25;
      ausgrid_elec_band_residential 1;
      ausgrid_elec_band_business 0;
      ausgrid_unit 0;
      ausgrid_income_band 1;
      ausgrid_gas_band 1;
      ausgrid_climate_zone 5;
      ausgrid_controlled_load 1;
      ausgrid_generation 0;
      };


object overhead_line {
      name FDR_4880_LV_NODE_020_1-FDR_4880_LV_SP_5213467;
      phases AN;
      from FDR_4880_LV_NODE_020_1;
      to FDR_4880_LV_SP_5213467;
      length 14.8 m;
      configuration conf_OHLine_600;
      };



object meter {
      name FDR_4880_LV_SP_5213467;
      phases AN;
      nominal_voltage  240;
      };


object load {
      name LOAD_8490314;
      parent FDR_4880_LV_SP_5213467;
      phases AN;
      nominal_voltage  240;
      base_power_A Load_4880.result;
      power_fraction_A 1;
      current_fraction_A 0;
      impedance_fraction_A 0;
      power_pf_A L_pf_Head80784.output;
      current_pf_A 1;
      impedance_pf_A 1;
      
      // Customer Trial Appended Data //
      ausgrid_sa1 11103123334;
      ausgrid_annual_consumption 5806.3484848;
      ausgrid_annual_consumption_with_control_load 5806.3484848;
      ausgrid_simple_cell 26;
      ausgrid_elec_band_residential 2;
      ausgrid_elec_band_business 0;
      ausgrid_unit 0;
      ausgrid_income_band 1;
      ausgrid_gas_band 1;
      ausgrid_climate_zone 5;
      ausgrid_controlled_load 0;
      ausgrid_generation 0;
      };


object overhead_line {
      name FDR_4880_LV_NODE_020_1-FDR_4880_LV_NODE_021_3;
      phases ABCN;
      from FDR_4880_LV_NODE_020_1;
      to FDR_4880_LV_NODE_021_3;
      length 45.7 m;
      configuration conf_OHLine_51101;
      };



object meter {
      name FDR_4880_LV_NODE_021_3;
      phases ABCN;
      nominal_voltage  240;
      };


object overhead_line {
      name FDR_4880_LV_NODE_021_3-FDR_4880_LV_SP_5213472;
      phases AN;
      from FDR_4880_LV_NODE_021_3;
      to FDR_4880_LV_SP_5213472;
      length 50.4 m;
      configuration conf_OHLine_600;
      };



object meter {
      name FDR_4880_LV_SP_5213472;
      phases AN;
      nominal_voltage  240;
      };


object load {
      name LOAD_8490308;
      parent FDR_4880_LV_SP_5213472;
      phases AN;
      nominal_voltage  240;
      base_power_A Load_4880.result;
      power_fraction_A 1;
      current_fraction_A 0;
      impedance_fraction_A 0;
      power_pf_A L_pf_Head80784.output;
      current_pf_A 1;
      impedance_pf_A 1;
      
      // Customer Trial Appended Data //
      ausgrid_sa1 11103123334;
      ausgrid_annual_consumption 4615.8484848;
      ausgrid_annual_consumption_with_control_load 4615.8484848;
      ausgrid_simple_cell 25;
      ausgrid_elec_band_residential 1;
      ausgrid_elec_band_business 0;
      ausgrid_unit 0;
      ausgrid_income_band 1;
      ausgrid_gas_band 1;
      ausgrid_climate_zone 5;
      ausgrid_controlled_load 0;
      ausgrid_generation 0;
      };


object overhead_line {
      name FDR_4880_LV_NODE_021_3-FDR_4880_LV_NODE_022_4;
      phases ABCN;
      from FDR_4880_LV_NODE_021_3;
      to FDR_4880_LV_NODE_022_4;
      length 37.9 m;
      configuration conf_OHLine_51101;
      };



object meter {
      name FDR_4880_LV_NODE_022_4;
      phases ABCN;
      nominal_voltage  240;
      };


object overhead_line {
      name FDR_4880_LV_NODE_022_4-FDR_4880_LV_SP_5335458;
      phases BN;
      from FDR_4880_LV_NODE_022_4;
      to FDR_4880_LV_SP_5335458;
      length 13.2 m;
      configuration conf_OHLine_600;
      };



object meter {
      name FDR_4880_LV_SP_5335458;
      phases BN;
      nominal_voltage  240;
      };


object load {
      name LOAD_8490148;
      parent FDR_4880_LV_SP_5335458;
      phases BN;
      nominal_voltage  240;
      base_power_B Load_4880.result;
      power_fraction_B 1;
      current_fraction_B 0;
      impedance_fraction_B 0;
      power_pf_B L_pf_Head80784.output;
      current_pf_B 1;
      impedance_pf_B 1;
      
      // Customer Trial Appended Data //
      ausgrid_sa1 11103123334;
      ausgrid_annual_consumption 3923.6181818;
      ausgrid_annual_consumption_with_control_load 5577.3878788;
      ausgrid_simple_cell 25;
      ausgrid_elec_band_residential 1;
      ausgrid_elec_band_business 0;
      ausgrid_unit 0;
      ausgrid_income_band 1;
      ausgrid_gas_band 1;
      ausgrid_climate_zone 5;
      ausgrid_controlled_load 1;
      ausgrid_generation 0;
      };


object overhead_line {
      name FDR_4880_LV_NODE_022_4-FDR_4880_LV_SP_5335457;
      phases AN;
      from FDR_4880_LV_NODE_022_4;
      to FDR_4880_LV_SP_5335457;
      length 16.1 m;
      configuration conf_OHLine_600;
      };



object meter {
      name FDR_4880_LV_SP_5335457;
      phases AN;
      nominal_voltage  240;
      };


object load {
      name LOAD_8490158;
      parent FDR_4880_LV_SP_5335457;
      phases AN;
      nominal_voltage  240;
      base_power_A Load_4880.result;
      power_fraction_A 1;
      current_fraction_A 0;
      impedance_fraction_A 0;
      power_pf_A L_pf_Head80784.output;
      current_pf_A 1;
      impedance_pf_A 1;
      
      // Customer Trial Appended Data //
      ausgrid_sa1 11103123334;
      ausgrid_annual_consumption 3526.2757576;
      ausgrid_annual_consumption_with_control_load 4824.6757576;
      ausgrid_simple_cell 25;
      ausgrid_elec_band_residential 1;
      ausgrid_elec_band_business 0;
      ausgrid_unit 0;
      ausgrid_income_band 1;
      ausgrid_gas_band 1;
      ausgrid_climate_zone 5;
      ausgrid_controlled_load 1;
      ausgrid_generation 0;
      };


object overhead_line {
      name FDR_4880_LV_NODE_022_4-FDR_4880_LV_SP_5335456;
      phases AN;
      from FDR_4880_LV_NODE_022_4;
      to FDR_4880_LV_SP_5335456;
      length 25.7 m;
      configuration conf_OHLine_600;
      };



object meter {
      name FDR_4880_LV_SP_5335456;
      phases AN;
      nominal_voltage  240;
      };


object load {
      name LOAD_8490150;
      parent FDR_4880_LV_SP_5335456;
      phases AN;
      nominal_voltage  240;
      base_power_A Load_4880.result;
      power_fraction_A 1;
      current_fraction_A 0;
      impedance_fraction_A 0;
      power_pf_A L_pf_Head80784.output;
      current_pf_A 1;
      impedance_pf_A 1;
      
      // Customer Trial Appended Data //
      ausgrid_sa1 11103123334;
      ausgrid_annual_consumption 5270.4787879;
      ausgrid_annual_consumption_with_control_load 11056.130303;
      ausgrid_simple_cell 25;
      ausgrid_elec_band_residential 1;
      ausgrid_elec_band_business 0;
      ausgrid_unit 0;
      ausgrid_income_band 1;
      ausgrid_gas_band 1;
      ausgrid_climate_zone 5;
      ausgrid_controlled_load 1;
      ausgrid_generation 0;
      };


object overhead_line {
      name FDR_4880_LV_NODE_022_4-FDR_4880_LV_SP_5213469;
      phases CN;
      from FDR_4880_LV_NODE_022_4;
      to FDR_4880_LV_SP_5213469;
      length 19.3 m;
      configuration conf_OHLine_600;
      };



object meter {
      name FDR_4880_LV_SP_5213469;
      phases CN;
      nominal_voltage  240;
      };


object load {
      name LOAD_8490140;
      parent FDR_4880_LV_SP_5213469;
      phases CN;
      nominal_voltage  240;
      base_power_C Load_4880.result;
      power_fraction_C 1;
      current_fraction_C 0;
      impedance_fraction_C 0;
      power_pf_C L_pf_Head80784.output;
      current_pf_C 1;
      impedance_pf_C 1;
      
      // Customer Trial Appended Data //
      ausgrid_sa1 11103123334;
      ausgrid_annual_consumption 4411.030303;
      ausgrid_annual_consumption_with_control_load 6948.2424242;
      ausgrid_simple_cell 25;
      ausgrid_elec_band_residential 1;
      ausgrid_elec_band_business 0;
      ausgrid_unit 0;
      ausgrid_income_band 1;
      ausgrid_gas_band 1;
      ausgrid_climate_zone 5;
      ausgrid_controlled_load 1;
      ausgrid_generation 0;
      };


object overhead_line {
      name FDR_4880_LV_NODE_022_4-FDR_4880_LV_SP_5335455;
      phases BN;
      from FDR_4880_LV_NODE_022_4;
      to FDR_4880_LV_SP_5335455;
      length 30.0 m;
      configuration conf_OHLine_600;
      };



object meter {
      name FDR_4880_LV_SP_5335455;
      phases BN;
      nominal_voltage  240;
      };


object load {
      name LOAD_8490144;
      parent FDR_4880_LV_SP_5335455;
      phases BN;
      nominal_voltage  240;
      base_power_B Load_4880.result;
      power_fraction_B 1;
      current_fraction_B 0;
      impedance_fraction_B 0;
      power_pf_B L_pf_Head80784.output;
      current_pf_B 1;
      impedance_pf_B 1;
      
      // Customer Trial Appended Data //
      ausgrid_sa1 11103123334;
      ausgrid_annual_consumption 8490.58489;
      ausgrid_annual_consumption_with_control_load 8490.58489;
      ausgrid_simple_cell 26;
      ausgrid_elec_band_residential 2;
      ausgrid_elec_band_business 0;
      ausgrid_unit 0;
      ausgrid_income_band 1;
      ausgrid_gas_band 1;
      ausgrid_climate_zone 5;
      ausgrid_controlled_load 0;
      ausgrid_generation 0;
      };


object overhead_line {
      name FDR_4880_LV_NODE_021_3-FDR_4880_LV_SP_5213471;
      phases BN;
      from FDR_4880_LV_NODE_021_3;
      to FDR_4880_LV_SP_5213471;
      length 47.2 m;
      configuration conf_OHLine_600;
      };



object meter {
      name FDR_4880_LV_SP_5213471;
      phases BN;
      nominal_voltage  240;
      };


object load {
      name LOAD_8490112;
      parent FDR_4880_LV_SP_5213471;
      phases BN;
      nominal_voltage  240;
      base_power_B Load_4880.result;
      power_fraction_B 1;
      current_fraction_B 0;
      impedance_fraction_B 0;
      power_pf_B L_pf_Head80784.output;
      current_pf_B 1;
      impedance_pf_B 1;
      
      // Customer Trial Appended Data //
      ausgrid_sa1 11103123334;
      ausgrid_annual_consumption 4865.0082653;
      ausgrid_annual_consumption_with_control_load 5807.8837755;
      ausgrid_simple_cell 25;
      ausgrid_elec_band_residential 1;
      ausgrid_elec_band_business 0;
      ausgrid_unit 0;
      ausgrid_income_band 1;
      ausgrid_gas_band 1;
      ausgrid_climate_zone 5;
      ausgrid_controlled_load 1;
      ausgrid_generation 0;
      };


object overhead_line {
      name FDR_4880_LV_NODE_021_3-FDR_4880_LV_SP_5335453;
      phases BN;
      from FDR_4880_LV_NODE_021_3;
      to FDR_4880_LV_SP_5335453;
      length 14.8 m;
      configuration conf_OHLine_600;
      };



object meter {
      name FDR_4880_LV_SP_5335453;
      phases BN;
      nominal_voltage  240;
      };


object load {
      name LOAD_8490126;
      parent FDR_4880_LV_SP_5335453;
      phases BN;
      nominal_voltage  240;
      base_power_B Load_4880.result;
      power_fraction_B 1;
      current_fraction_B 0;
      impedance_fraction_B 0;
      power_pf_B L_pf_Head80784.output;
      current_pf_B 1;
      impedance_pf_B 1;
      
      // Customer Trial Appended Data //
      ausgrid_sa1 11103123334;
      ausgrid_annual_consumption 7160.4357576;
      ausgrid_annual_consumption_with_control_load 11786.574848;
      ausgrid_simple_cell 26;
      ausgrid_elec_band_residential 2;
      ausgrid_elec_band_business 0;
      ausgrid_unit 0;
      ausgrid_income_band 1;
      ausgrid_gas_band 1;
      ausgrid_climate_zone 5;
      ausgrid_controlled_load 1;
      ausgrid_generation 1;
      };


object inverter {
      name DG_8490126;
      parent FDR_4880_LV_SP_5335453;
      phases BN;
      generator_mode CONSTANT_PF;
      generator_status ONLINE;
      inverter_type PWM;
      power_factor 0.9;
      rated_power 10000;
      inverter_efficiency 0.95;
      };


object solar {
      name SOLAR_8490126;
      parent DG_8490126;
      phases BN;
      generator_status ONLINE;
      weather ElermoreClimate;
      panel_type SINGLE_CRYSTAL_SILICON;
      generator_mode CONSTANT_PF;
      area 9.76 m^2;
      tilt_angle 28;
      efficiency 0.14;
      orientation_azimuth 10;
      orientation  FIXED_AXIS;
      SOLAR_TILT_MODEL  SOLPOS;
      SOLAR_POWER_MODEL  DEFAULT;
      };


object overhead_line {
      name FDR_4880_LV_NODE_021_3-FDR_4880_LV_SP_5213470;
      phases BN;
      from FDR_4880_LV_NODE_021_3;
      to FDR_4880_LV_SP_5213470;
      length 38.4 m;
      configuration conf_OHLine_600;
      };



object meter {
      name FDR_4880_LV_SP_5213470;
      phases BN;
      nominal_voltage  240;
      };


object load {
      name LOAD_8490120;
      parent FDR_4880_LV_SP_5213470;
      phases BN;
      nominal_voltage  240;
      base_power_B Load_4880.result;
      power_fraction_B 1;
      current_fraction_B 0;
      impedance_fraction_B 0;
      power_pf_B L_pf_Head80784.output;
      current_pf_B 1;
      impedance_pf_B 1;
      
      // Customer Trial Appended Data //
      ausgrid_sa1 11103123334;
      ausgrid_annual_consumption 2679.3636364;
      ausgrid_annual_consumption_with_control_load 4615;
      ausgrid_simple_cell 25;
      ausgrid_elec_band_residential 1;
      ausgrid_elec_band_business 0;
      ausgrid_unit 0;
      ausgrid_income_band 1;
      ausgrid_gas_band 1;
      ausgrid_climate_zone 5;
      ausgrid_controlled_load 1;
      ausgrid_generation 0;
      };


object overhead_line {
      name FDR_4880_LV_NODE_021_3-FDR_4880_LV_SP_5335454;
      phases AN;
      from FDR_4880_LV_NODE_021_3;
      to FDR_4880_LV_SP_5335454;
      length 14.7 m;
      configuration conf_OHLine_600;
      };



object meter {
      name FDR_4880_LV_SP_5335454;
      phases AN;
      nominal_voltage  240;
      };


object load {
      name LOAD_8490136;
      parent FDR_4880_LV_SP_5335454;
      phases AN;
      nominal_voltage  240;
      base_power_A Load_4880.result;
      power_fraction_A 1;
      current_fraction_A 0;
      impedance_fraction_A 0;
      power_pf_A L_pf_Head80784.output;
      current_pf_A 1;
      impedance_pf_A 1;
      
      // Customer Trial Appended Data //
      ausgrid_sa1 11103123334;
      ausgrid_annual_consumption 9951.3981818;
      ausgrid_annual_consumption_with_control_load 9951.3981818;
      ausgrid_simple_cell 27;
      ausgrid_elec_band_residential 3;
      ausgrid_elec_band_business 0;
      ausgrid_unit 0;
      ausgrid_income_band 1;
      ausgrid_gas_band 1;
      ausgrid_climate_zone 5;
      ausgrid_controlled_load 1;
      ausgrid_generation 0;
      };


object overhead_line {
      name FDR_4880_LV_NODE_021_3-FDR_4880_LV_SP_5335459;
      phases AN;
      from FDR_4880_LV_NODE_021_3;
      to FDR_4880_LV_SP_5335459;
      length 29.0 m;
      configuration conf_OHLine_600;
      };



object meter {
      name FDR_4880_LV_SP_5335459;
      phases AN;
      nominal_voltage  240;
      };


object load {
      name LOAD_8490128;
      parent FDR_4880_LV_SP_5335459;
      phases AN;
      nominal_voltage  240;
      base_power_A Load_4880.result;
      power_fraction_A 1;
      current_fraction_A 0;
      impedance_fraction_A 0;
      power_pf_A L_pf_Head80784.output;
      current_pf_A 1;
      impedance_pf_A 1;
      
      // Customer Trial Appended Data //
      ausgrid_sa1 11103123334;
      ausgrid_annual_consumption 2374.9090909;
      ausgrid_annual_consumption_with_control_load 2374.9090909;
      ausgrid_simple_cell 25;
      ausgrid_elec_band_residential 1;
      ausgrid_elec_band_business 0;
      ausgrid_unit 0;
      ausgrid_income_band 1;
      ausgrid_gas_band 1;
      ausgrid_climate_zone 5;
      ausgrid_controlled_load 0;
      ausgrid_generation 0;
      };


object overhead_line {
      name FDR_4880_LV_NODE_020_1-FDR_4880_LV_SP_5213468;
      phases CN;
      from FDR_4880_LV_NODE_020_1;
      to FDR_4880_LV_SP_5213468;
      length 26.1 m;
      configuration conf_OHLine_600;
      };



object meter {
      name FDR_4880_LV_SP_5213468;
      phases CN;
      nominal_voltage  240;
      };


object load {
      name LOAD_8490118;
      parent FDR_4880_LV_SP_5213468;
      phases CN;
      nominal_voltage  240;
      base_power_C Load_4880.result;
      power_fraction_C 1;
      current_fraction_C 0;
      impedance_fraction_C 0;
      power_pf_C L_pf_Head80784.output;
      current_pf_C 1;
      impedance_pf_C 1;
      
      // Customer Trial Appended Data //
      ausgrid_sa1 11103123334;
      ausgrid_annual_consumption 2814.0606061;
      ausgrid_annual_consumption_with_control_load 4280.5757576;
      ausgrid_simple_cell 25;
      ausgrid_elec_band_residential 1;
      ausgrid_elec_band_business 0;
      ausgrid_unit 0;
      ausgrid_income_band 1;
      ausgrid_gas_band 1;
      ausgrid_climate_zone 5;
      ausgrid_controlled_load 1;
      ausgrid_generation 0;
      };


object overhead_line {
      name FDR_4880_LV_NODE_020_1-FDR_4880_LV_SP_5335452;
      phases AN;
      from FDR_4880_LV_NODE_020_1;
      to FDR_4880_LV_SP_5335452;
      length 14.9 m;
      configuration conf_OHLine_600;
      };



object meter {
      name FDR_4880_LV_SP_5335452;
      phases AN;
      nominal_voltage  240;
      };


object load {
      name LOAD_8490298;
      parent FDR_4880_LV_SP_5335452;
      phases AN;
      nominal_voltage  240;
      base_power_A Load_4880.result;
      power_fraction_A 1;
      current_fraction_A 0;
      impedance_fraction_A 0;
      power_pf_A L_pf_Head80784.output;
      current_pf_A 1;
      impedance_pf_A 1;
      
      // Customer Trial Appended Data //
      ausgrid_sa1 11103123334;
      ausgrid_annual_consumption 5805.9393939;
      ausgrid_annual_consumption_with_control_load 11949.363636;
      ausgrid_simple_cell 26;
      ausgrid_elec_band_residential 2;
      ausgrid_elec_band_business 0;
      ausgrid_unit 0;
      ausgrid_income_band 1;
      ausgrid_gas_band 1;
      ausgrid_climate_zone 5;
      ausgrid_controlled_load 1;
      ausgrid_generation 0;
      };


object switch {
      name FDR_4880_LV_NODE_019_2-FDR_4880_LV_SW_020_T1;
      phases ABCN;
      from FDR_4880_LV_NODE_019_2;
      to FDR_4880_LV_SW_020_T1;
      status CLOSED;
      };



object meter {
      name FDR_4880_LV_SW_020_T1;
      phases ABCN;
      nominal_voltage  240;
      };


object switch {
      name FDR_4880_LV_SW_020;
      phases ABCN;
      from FDR_4880_LV_SW_020_T1;
      to FDR_4880_LV_SW_020_T2;
      status CLOSED;
      };



object meter {
      name FDR_4880_LV_SW_020_T2;
      phases ABCN;
      nominal_voltage  240;
      };


object overhead_line {
      name FDR_4880_LV_NODE_018_1-FDR_4880_LV_SP_5305349;
      phases CN;
      from FDR_4880_LV_NODE_018_1;
      to FDR_4880_LV_SP_5305349;
      length 31.8 m;
      configuration conf_OHLine_600;
      };



object meter {
      name FDR_4880_LV_SP_5305349;
      phases CN;
      nominal_voltage  240;
      };


object load {
      name LOAD_8490326;
      parent FDR_4880_LV_SP_5305349;
      phases CN;
      nominal_voltage  240;
      base_power_C Load_4880.result;
      power_fraction_C 1;
      current_fraction_C 0;
      impedance_fraction_C 0;
      power_pf_C L_pf_Head80784.output;
      current_pf_C 1;
      impedance_pf_C 1;
      
      // Customer Trial Appended Data //
      ausgrid_sa1 11103123334;
      ausgrid_annual_consumption 7087.58489;
      ausgrid_annual_consumption_with_control_load 9742.0394355;
      ausgrid_simple_cell 26;
      ausgrid_elec_band_residential 2;
      ausgrid_elec_band_business 0;
      ausgrid_unit 0;
      ausgrid_income_band 1;
      ausgrid_gas_band 1;
      ausgrid_climate_zone 5;
      ausgrid_controlled_load 1;
      ausgrid_generation 0;
      };


object overhead_line {
      name FDR_4880_LV_NODE_018_1-FDR_4880_LV_SP_5213456;
      phases BN;
      from FDR_4880_LV_NODE_018_1;
      to FDR_4880_LV_SP_5213456;
      length 17.4 m;
      configuration conf_OHLine_600;
      };



object meter {
      name FDR_4880_LV_SP_5213456;
      phases BN;
      nominal_voltage  240;
      };


object load {
      name LOAD_8490260;
      parent FDR_4880_LV_SP_5213456;
      phases BN;
      nominal_voltage  240;
      base_power_B Load_4880.result;
      power_fraction_B 1;
      current_fraction_B 0;
      impedance_fraction_B 0;
      power_pf_B L_pf_Head80784.output;
      current_pf_B 1;
      impedance_pf_B 1;
      
      // Customer Trial Appended Data //
      ausgrid_sa1 11103123334;
      ausgrid_annual_consumption 3180.8787879;
      ausgrid_annual_consumption_with_control_load 5177.030303;
      ausgrid_simple_cell 25;
      ausgrid_elec_band_residential 1;
      ausgrid_elec_band_business 0;
      ausgrid_unit 0;
      ausgrid_income_band 1;
      ausgrid_gas_band 1;
      ausgrid_climate_zone 5;
      ausgrid_controlled_load 1;
      ausgrid_generation 0;
      };


object overhead_line {
      name FDR_4880_LV_NODE_018_1-FDR_4880_LV_SP_5305348;
      phases AN;
      from FDR_4880_LV_NODE_018_1;
      to FDR_4880_LV_SP_5305348;
      length 43.6 m;
      configuration conf_OHLine_600;
      };



object meter {
      name FDR_4880_LV_SP_5305348;
      phases AN;
      nominal_voltage  240;
      };


object load {
      name LOAD_8490262;
      parent FDR_4880_LV_SP_5305348;
      phases AN;
      nominal_voltage  240;
      base_power_A Load_4880.result;
      power_fraction_A 1;
      current_fraction_A 0;
      impedance_fraction_A 0;
      power_pf_A L_pf_Head80784.output;
      current_pf_A 1;
      impedance_pf_A 1;
      
      // Customer Trial Appended Data //
      ausgrid_sa1 11103123334;
      ausgrid_annual_consumption 2947.6369394;
      ausgrid_annual_consumption_with_control_load 3735.2959394;
      ausgrid_simple_cell 25;
      ausgrid_elec_band_residential 1;
      ausgrid_elec_band_business 0;
      ausgrid_unit 0;
      ausgrid_income_band 1;
      ausgrid_gas_band 1;
      ausgrid_climate_zone 5;
      ausgrid_controlled_load 1;
      ausgrid_generation 0;
      };


object overhead_line {
      name FDR_4880_LV_NODE_018_1-FDR_4880_LV_NODE_019_3;
      phases ABCN;
      from FDR_4880_LV_NODE_018_1;
      to FDR_4880_LV_NODE_019_3;
      length 65.8 m;
      configuration conf_OHLine_51060;
      };



object meter {
      name FDR_4880_LV_NODE_019_3;
      phases ABCN;
      nominal_voltage  240;
      };


object overhead_line {
      name FDR_4880_LV_NODE_019_3-FDR_4880_LV_SP_5305347;
      phases CN;
      from FDR_4880_LV_NODE_019_3;
      to FDR_4880_LV_SP_5305347;
      length 32.0 m;
      configuration conf_OHLine_600;
      };



object meter {
      name FDR_4880_LV_SP_5305347;
      phases CN;
      nominal_voltage  240;
      };


object load {
      name LOAD_8490254;
      parent FDR_4880_LV_SP_5305347;
      phases CN;
      nominal_voltage  240;
      base_power_C Load_4880.result;
      power_fraction_C 1;
      current_fraction_C 0;
      impedance_fraction_C 0;
      power_pf_C L_pf_Head80784.output;
      current_pf_C 1;
      impedance_pf_C 1;
      
      // Customer Trial Appended Data //
      ausgrid_sa1 11103123334;
      ausgrid_annual_consumption 5700.4848485;
      ausgrid_annual_consumption_with_control_load 8324.7878788;
      ausgrid_simple_cell 26;
      ausgrid_elec_band_residential 2;
      ausgrid_elec_band_business 0;
      ausgrid_unit 0;
      ausgrid_income_band 1;
      ausgrid_gas_band 1;
      ausgrid_climate_zone 5;
      ausgrid_controlled_load 1;
      ausgrid_generation 0;
      };


object overhead_line {
      name FDR_4880_LV_NODE_019_3-FDR_4880_LV_NODE_020_3;
      phases ABCN;
      from FDR_4880_LV_NODE_019_3;
      to FDR_4880_LV_NODE_020_3;
      length 37.5 m;
      configuration conf_OHLine_51060;
      };



object meter {
      name FDR_4880_LV_NODE_020_3;
      phases ABCN;
      nominal_voltage  240;
      };


object switch {
      name FDR_4880_LV_NODE_020_3-FDR_4880_LV_SW_021_T1;
      phases ABCN;
      from FDR_4880_LV_NODE_020_3;
      to FDR_4880_LV_SW_021_T1;
      status CLOSED;
      };



object meter {
      name FDR_4880_LV_SW_021_T1;
      phases ABCN;
      nominal_voltage  240;
      };


object switch {
      name FDR_4880_LV_SW_021;
      phases ABCN;
      from FDR_4880_LV_SW_021_T1;
      to FDR_4880_LV_SW_021_T2;
      status CLOSED;
      };



object meter {
      name FDR_4880_LV_SW_021_T2;
      phases ABCN;
      nominal_voltage  240;
      };


object overhead_line {
      name FDR_4880_LV_NODE_020_3-FDR_4880_LV_SW_021_1_T1;
      phases ABCN;
      from FDR_4880_LV_NODE_020_3;
      to FDR_4880_LV_SW_021_1_T1;
      length 2.0 m;
      configuration conf_OHLine_51101;
      };



object meter {
      name FDR_4880_LV_SW_021_1_T1;
      phases ABCN;
      nominal_voltage  240;
      };


object overhead_line {
      name FDR_4880_LV_NODE_019_3-FDR_4880_LV_SP_5305346;
      phases CN;
      from FDR_4880_LV_NODE_019_3;
      to FDR_4880_LV_SP_5305346;
      length 27.6 m;
      configuration conf_OHLine_600;
      };



object meter {
      name FDR_4880_LV_SP_5305346;
      phases CN;
      nominal_voltage  240;
      };


object load {
      name LOAD_8490248;
      parent FDR_4880_LV_SP_5305346;
      phases CN;
      nominal_voltage  240;
      base_power_C Load_4880.result;
      power_fraction_C 1;
      current_fraction_C 0;
      impedance_fraction_C 0;
      power_pf_C L_pf_Head80784.output;
      current_pf_C 1;
      impedance_pf_C 1;
      
      // Customer Trial Appended Data //
      ausgrid_sa1 11103123334;
      ausgrid_annual_consumption 2701.5923077;
      ausgrid_annual_consumption_with_control_load 2701.5923077;
      ausgrid_simple_cell 25;
      ausgrid_elec_band_residential 1;
      ausgrid_elec_band_business 0;
      ausgrid_unit 0;
      ausgrid_income_band 1;
      ausgrid_gas_band 1;
      ausgrid_climate_zone 5;
      ausgrid_controlled_load 0;
      ausgrid_generation 0;
      };


object overhead_line {
      name FDR_4880_LV_NODE_019_3-FDR_4880_LV_SP_5305345;
      phases AN;
      from FDR_4880_LV_NODE_019_3;
      to FDR_4880_LV_SP_5305345;
      length 31.3 m;
      configuration conf_OHLine_600;
      };



object meter {
      name FDR_4880_LV_SP_5305345;
      phases AN;
      nominal_voltage  240;
      };


object load {
      name LOAD_8490236;
      parent FDR_4880_LV_SP_5305345;
      phases AN;
      nominal_voltage  240;
      base_power_A Load_4880.result;
      power_fraction_A 1;
      current_fraction_A 0;
      impedance_fraction_A 0;
      power_pf_A L_pf_Head80784.output;
      current_pf_A 1;
      impedance_pf_A 1;
      
      // Customer Trial Appended Data //
      ausgrid_sa1 11103123334;
      ausgrid_annual_consumption 1454.6969697;
      ausgrid_annual_consumption_with_control_load 3209.5621212;
      ausgrid_simple_cell 25;
      ausgrid_elec_band_residential 1;
      ausgrid_elec_band_business 0;
      ausgrid_unit 0;
      ausgrid_income_band 1;
      ausgrid_gas_band 1;
      ausgrid_climate_zone 5;
      ausgrid_controlled_load 1;
      ausgrid_generation 0;
      };


object overhead_line {
      name FDR_4880_LV_NODE_019_3-FDR_12447_LV_SW_020_T1;
      phases ABCN;
      from FDR_4880_LV_NODE_019_3;
      to FDR_12447_LV_SW_020_T1;
      length 1.6 m;
      configuration conf_OHLine_51101;
      };



object meter {
      name FDR_12447_LV_SW_020_T1;
      phases ABCN;
      nominal_voltage  240;
      };


object overhead_line {
      name FDR_4880_LV_NODE_018_1-FDR_4880_LV_SP_6153938;
      phases ABCN;
      from FDR_4880_LV_NODE_018_1;
      to FDR_4880_LV_SP_6153938;
      length 61.5 m;
      configuration conf_OHLine_600;
      };



object meter {
      name FDR_4880_LV_SP_6153938;
      phases ABCN;
      nominal_voltage  240;
      };


object load {
      name LOAD_8490328;
      parent FDR_4880_LV_SP_6153938;
      phases AN;
      nominal_voltage  240;
      base_power_A Load_4880.result;
      power_fraction_A 1;
      current_fraction_A 0;
      impedance_fraction_A 0;
      power_pf_A L_pf_Head80784.output;
      current_pf_A 1;
      impedance_pf_A 1;
      
      // Customer Trial Appended Data //
      ausgrid_sa1 11103123334;
      ausgrid_annual_consumption 1946.19;
      ausgrid_annual_consumption_with_control_load 1946.19;
      ausgrid_simple_cell 49;
      ausgrid_elec_band_residential 0;
      ausgrid_elec_band_business 1;
      ausgrid_unit 0;
      ausgrid_income_band 1;
      ausgrid_gas_band 1;
      ausgrid_climate_zone 5;
      ausgrid_controlled_load 0;
      ausgrid_generation 0;
      };


object load {
      name LOAD_8490330;
      parent FDR_4880_LV_SP_6153938;
      phases CN;
      nominal_voltage  240;
      base_power_C Load_4880.result;
      power_fraction_C 1;
      current_fraction_C 0;
      impedance_fraction_C 0;
      power_pf_C L_pf_Head80784.output;
      current_pf_C 1;
      impedance_pf_C 1;
      
      // Customer Trial Appended Data //
      ausgrid_sa1 11103123334;
      ausgrid_annual_consumption 2829.5275758;
      ausgrid_annual_consumption_with_control_load 2829.5275758;
      ausgrid_simple_cell 37;
      ausgrid_elec_band_residential 1;
      ausgrid_elec_band_business 0;
      ausgrid_unit 1;
      ausgrid_income_band 1;
      ausgrid_gas_band 1;
      ausgrid_climate_zone 5;
      ausgrid_controlled_load 0;
      ausgrid_generation 0;
      };


object load {
      name LOAD_8490334;
      parent FDR_4880_LV_SP_6153938;
      phases AN;
      nominal_voltage  240;
      base_power_A Load_4880.result;
      power_fraction_A 1;
      current_fraction_A 0;
      impedance_fraction_A 0;
      power_pf_A L_pf_Head80784.output;
      current_pf_A 1;
      impedance_pf_A 1;
      
      // Customer Trial Appended Data //
      ausgrid_sa1 11103123334;
      ausgrid_annual_consumption 4506.3878788;
      ausgrid_annual_consumption_with_control_load 4506.3878788;
      ausgrid_simple_cell 37;
      ausgrid_elec_band_residential 1;
      ausgrid_elec_band_business 0;
      ausgrid_unit 1;
      ausgrid_income_band 1;
      ausgrid_gas_band 1;
      ausgrid_climate_zone 5;
      ausgrid_controlled_load 0;
      ausgrid_generation 0;
      };


object load {
      name LOAD_8490336;
      parent FDR_4880_LV_SP_6153938;
      phases BN;
      nominal_voltage  240;
      base_power_B Load_4880.result;
      power_fraction_B 1;
      current_fraction_B 0;
      impedance_fraction_B 0;
      power_pf_B L_pf_Head80784.output;
      current_pf_B 1;
      impedance_pf_B 1;
      
      // Customer Trial Appended Data //
      ausgrid_sa1 11103123334;
      ausgrid_annual_consumption 5338.8509091;
      ausgrid_annual_consumption_with_control_load 5338.8509091;
      ausgrid_simple_cell 37;
      ausgrid_elec_band_residential 1;
      ausgrid_elec_band_business 0;
      ausgrid_unit 1;
      ausgrid_income_band 1;
      ausgrid_gas_band 1;
      ausgrid_climate_zone 5;
      ausgrid_controlled_load 0;
      ausgrid_generation 0;
      };


object load {
      name LOAD_8490338;
      parent FDR_4880_LV_SP_6153938;
      phases CN;
      nominal_voltage  240;
      base_power_C Load_4880.result;
      power_fraction_C 1;
      current_fraction_C 0;
      impedance_fraction_C 0;
      power_pf_C L_pf_Head80784.output;
      current_pf_C 1;
      impedance_pf_C 1;
      
      // Customer Trial Appended Data //
      ausgrid_sa1 11103123334;
      ausgrid_annual_consumption 5253.0614286;
      ausgrid_annual_consumption_with_control_load 5253.0614286;
      ausgrid_simple_cell 37;
      ausgrid_elec_band_residential 1;
      ausgrid_elec_band_business 0;
      ausgrid_unit 1;
      ausgrid_income_band 1;
      ausgrid_gas_band 1;
      ausgrid_climate_zone 5;
      ausgrid_controlled_load 0;
      ausgrid_generation 0;
      };


object load {
      name LOAD_8490340;
      parent FDR_4880_LV_SP_6153938;
      phases AN;
      nominal_voltage  240;
      base_power_A Load_4880.result;
      power_fraction_A 1;
      current_fraction_A 0;
      impedance_fraction_A 0;
      power_pf_A L_pf_Head80784.output;
      current_pf_A 1;
      impedance_pf_A 1;
      
      // Customer Trial Appended Data //
      ausgrid_sa1 11103123334;
      ausgrid_annual_consumption 9637.4057576;
      ausgrid_annual_consumption_with_control_load 9637.4057576;
      ausgrid_simple_cell 39;
      ausgrid_elec_band_residential 3;
      ausgrid_elec_band_business 0;
      ausgrid_unit 1;
      ausgrid_income_band 1;
      ausgrid_gas_band 1;
      ausgrid_climate_zone 5;
      ausgrid_controlled_load 0;
      ausgrid_generation 0;
      };


object load {
      name LOAD_8490342;
      parent FDR_4880_LV_SP_6153938;
      phases BN;
      nominal_voltage  240;
      base_power_B Load_4880.result;
      power_fraction_B 1;
      current_fraction_B 0;
      impedance_fraction_B 0;
      power_pf_B L_pf_Head80784.output;
      current_pf_B 1;
      impedance_pf_B 1;
      
      // Customer Trial Appended Data //
      ausgrid_sa1 11103123334;
      ausgrid_annual_consumption 8806.7206061;
      ausgrid_annual_consumption_with_control_load 8806.7206061;
      ausgrid_simple_cell 38;
      ausgrid_elec_band_residential 2;
      ausgrid_elec_band_business 0;
      ausgrid_unit 1;
      ausgrid_income_band 1;
      ausgrid_gas_band 1;
      ausgrid_climate_zone 5;
      ausgrid_controlled_load 0;
      ausgrid_generation 0;
      };


object load {
      name LOAD_8490344;
      parent FDR_4880_LV_SP_6153938;
      phases CN;
      nominal_voltage  240;
      base_power_C Load_4880.result;
      power_fraction_C 1;
      current_fraction_C 0;
      impedance_fraction_C 0;
      power_pf_C L_pf_Head80784.output;
      current_pf_C 1;
      impedance_pf_C 1;
      
      // Customer Trial Appended Data //
      ausgrid_sa1 11103123334;
      ausgrid_annual_consumption 5744.4712121;
      ausgrid_annual_consumption_with_control_load 5744.4712121;
      ausgrid_simple_cell 38;
      ausgrid_elec_band_residential 2;
      ausgrid_elec_band_business 0;
      ausgrid_unit 1;
      ausgrid_income_band 1;
      ausgrid_gas_band 1;
      ausgrid_climate_zone 5;
      ausgrid_controlled_load 0;
      ausgrid_generation 0;
      };


object load {
      name LOAD_8490346;
      parent FDR_4880_LV_SP_6153938;
      phases AN;
      nominal_voltage  240;
      base_power_A Load_4880.result;
      power_fraction_A 1;
      current_fraction_A 0;
      impedance_fraction_A 0;
      power_pf_A L_pf_Head80784.output;
      current_pf_A 1;
      impedance_pf_A 1;
      
      // Customer Trial Appended Data //
      ausgrid_sa1 11103123334;
      ausgrid_annual_consumption 8933.9606061;
      ausgrid_annual_consumption_with_control_load 8933.9606061;
      ausgrid_simple_cell 38;
      ausgrid_elec_band_residential 2;
      ausgrid_elec_band_business 0;
      ausgrid_unit 1;
      ausgrid_income_band 1;
      ausgrid_gas_band 1;
      ausgrid_climate_zone 5;
      ausgrid_controlled_load 0;
      ausgrid_generation 0;
      };


object load {
      name LOAD_8490348;
      parent FDR_4880_LV_SP_6153938;
      phases BN;
      nominal_voltage  240;
      base_power_B Load_4880.result;
      power_fraction_B 1;
      current_fraction_B 0;
      impedance_fraction_B 0;
      power_pf_B L_pf_Head80784.output;
      current_pf_B 1;
      impedance_pf_B 1;
      
      // Customer Trial Appended Data //
      ausgrid_sa1 11103123334;
      ausgrid_annual_consumption 3417.1090909;
      ausgrid_annual_consumption_with_control_load 3417.1090909;
      ausgrid_simple_cell 37;
      ausgrid_elec_band_residential 1;
      ausgrid_elec_band_business 0;
      ausgrid_unit 1;
      ausgrid_income_band 1;
      ausgrid_gas_band 1;
      ausgrid_climate_zone 5;
      ausgrid_controlled_load 0;
      ausgrid_generation 0;
      };


object load {
      name LOAD_8490332;
      parent FDR_4880_LV_SP_6153938;
      phases CN;
      nominal_voltage  240;
      base_power_C Load_4880.result;
      power_fraction_C 1;
      current_fraction_C 0;
      impedance_fraction_C 0;
      power_pf_C L_pf_Head80784.output;
      current_pf_C 1;
      impedance_pf_C 1;
      
      // Customer Trial Appended Data //
      ausgrid_sa1 11103123334;
      ausgrid_annual_consumption 6207.3066667;
      ausgrid_annual_consumption_with_control_load 6207.3066667;
      ausgrid_simple_cell 38;
      ausgrid_elec_band_residential 2;
      ausgrid_elec_band_business 0;
      ausgrid_unit 1;
      ausgrid_income_band 1;
      ausgrid_gas_band 1;
      ausgrid_climate_zone 5;
      ausgrid_controlled_load 0;
      ausgrid_generation 0;
      };


object overhead_line {
      name FDR_4880_LV_NODE_018_1-FDR_4880_LV_SP_5213164;
      phases BN;
      from FDR_4880_LV_NODE_018_1;
      to FDR_4880_LV_SP_5213164;
      length 34.3 m;
      configuration conf_OHLine_600;
      };



object meter {
      name FDR_4880_LV_SP_5213164;
      phases BN;
      nominal_voltage  240;
      };


object load {
      name LOAD_8490278;
      parent FDR_4880_LV_SP_5213164;
      phases BN;
      nominal_voltage  240;
      base_power_B Load_4880.result;
      power_fraction_B 1;
      current_fraction_B 0;
      impedance_fraction_B 0;
      power_pf_B L_pf_Head80784.output;
      current_pf_B 1;
      impedance_pf_B 1;
      
      // Customer Trial Appended Data //
      ausgrid_sa1 11103123334;
      ausgrid_annual_consumption 2332.1111111;
      ausgrid_annual_consumption_with_control_load 2332.1111111;
      ausgrid_simple_cell 25;
      ausgrid_elec_band_residential 1;
      ausgrid_elec_band_business 0;
      ausgrid_unit 0;
      ausgrid_income_band 1;
      ausgrid_gas_band 1;
      ausgrid_climate_zone 5;
      ausgrid_controlled_load 0;
      ausgrid_generation 0;
      };


object overhead_line {
      name FDR_4880_LV_NODE_018_1-FDR_4880_LV_SP_5213457;
      phases BN;
      from FDR_4880_LV_NODE_018_1;
      to FDR_4880_LV_SP_5213457;
      length 14.3 m;
      configuration conf_OHLine_600;
      };



object meter {
      name FDR_4880_LV_SP_5213457;
      phases BN;
      nominal_voltage  240;
      };


object load {
      name LOAD_8490268;
      parent FDR_4880_LV_SP_5213457;
      phases BN;
      nominal_voltage  240;
      base_power_B Load_4880.result;
      power_fraction_B 1;
      current_fraction_B 0;
      impedance_fraction_B 0;
      power_pf_B L_pf_Head80784.output;
      current_pf_B 1;
      impedance_pf_B 1;
      
      // Customer Trial Appended Data //
      ausgrid_sa1 11103123334;
      ausgrid_annual_consumption 1594.4242424;
      ausgrid_annual_consumption_with_control_load 1594.4242424;
      ausgrid_simple_cell 25;
      ausgrid_elec_band_residential 1;
      ausgrid_elec_band_business 0;
      ausgrid_unit 0;
      ausgrid_income_band 1;
      ausgrid_gas_band 1;
      ausgrid_climate_zone 5;
      ausgrid_controlled_load 0;
      ausgrid_generation 0;
      };


object overhead_line {
      name FDR_4880_LV_NODE_018_1-FDR_4880_LV_SP_5305350;
      phases BN;
      from FDR_4880_LV_NODE_018_1;
      to FDR_4880_LV_SP_5305350;
      length 41.5 m;
      configuration conf_OHLine_600;
      };



object meter {
      name FDR_4880_LV_SP_5305350;
      phases BN;
      nominal_voltage  240;
      };


object load {
      name LOAD_8490282;
      parent FDR_4880_LV_SP_5305350;
      phases BN;
      nominal_voltage  240;
      base_power_B Load_4880.result;
      power_fraction_B 1;
      current_fraction_B 0;
      impedance_fraction_B 0;
      power_pf_B L_pf_Head80784.output;
      current_pf_B 1;
      impedance_pf_B 1;
      
      // Customer Trial Appended Data //
      ausgrid_sa1 11103123334;
      ausgrid_annual_consumption 1441.1484848;
      ausgrid_annual_consumption_with_control_load 1441.1484848;
      ausgrid_simple_cell 25;
      ausgrid_elec_band_residential 1;
      ausgrid_elec_band_business 0;
      ausgrid_unit 0;
      ausgrid_income_band 1;
      ausgrid_gas_band 1;
      ausgrid_climate_zone 5;
      ausgrid_controlled_load 0;
      ausgrid_generation 0;
      };


object overhead_line {
      name FDR_4880_LV_NODE_017-FDR_4880_LV_NODE_018;
      phases ABCN;
      from FDR_4880_LV_NODE_017;
      to FDR_4880_LV_NODE_018;
      length 19.5 m;
      configuration conf_OHLine_51060;
      };



object meter {
      name FDR_4880_LV_NODE_018;
      phases ABCN;
      nominal_voltage  240;
      };


object overhead_line {
      name FDR_4880_LV_NODE_018-FDR_4880_LV_NODE_019_1;
      phases ABCN;
      from FDR_4880_LV_NODE_018;
      to FDR_4880_LV_NODE_019_1;
      length 66.0 m;
      configuration conf_OHLine_51027;
      };



object meter {
      name FDR_4880_LV_NODE_019_1;
      phases ABCN;
      nominal_voltage  240;
      };


object overhead_line {
      name FDR_4880_LV_NODE_019_1-FDR_4880_LV_SP_5335443;
      phases CN;
      from FDR_4880_LV_NODE_019_1;
      to FDR_4880_LV_SP_5335443;
      length 26.8 m;
      configuration conf_OHLine_57018;
      };



object meter {
      name FDR_4880_LV_SP_5335443;
      phases CN;
      nominal_voltage  240;
      };


object load {
      name LOAD_8490242;
      parent FDR_4880_LV_SP_5335443;
      phases CN;
      nominal_voltage  240;
      base_power_C Load_4880.result;
      power_fraction_C 1;
      current_fraction_C 0;
      impedance_fraction_C 0;
      power_pf_C L_pf_Head80784.output;
      current_pf_C 1;
      impedance_pf_C 1;
      
      // Customer Trial Appended Data //
      ausgrid_sa1 11103123334;
      ausgrid_annual_consumption 3376.2636364;
      ausgrid_annual_consumption_with_control_load 5117.9590909;
      ausgrid_simple_cell 25;
      ausgrid_elec_band_residential 1;
      ausgrid_elec_band_business 0;
      ausgrid_unit 0;
      ausgrid_income_band 1;
      ausgrid_gas_band 1;
      ausgrid_climate_zone 5;
      ausgrid_controlled_load 1;
      ausgrid_generation 0;
      };


object overhead_line {
      name FDR_4880_LV_NODE_019_1-FDR_4880_LV_NODE_020;
      phases ABCN;
      from FDR_4880_LV_NODE_019_1;
      to FDR_4880_LV_NODE_020;
      length 30.9 m;
      configuration conf_OHLine_51027;
      };



object meter {
      name FDR_4880_LV_NODE_020;
      phases ABCN;
      nominal_voltage  240;
      };


object overhead_line {
      name FDR_4880_LV_NODE_020-FDR_4880_LV_SP_5335446;
      phases CN;
      from FDR_4880_LV_NODE_020;
      to FDR_4880_LV_SP_5335446;
      length 25.8 m;
      configuration conf_OHLine_2312;
      };



object meter {
      name FDR_4880_LV_SP_5335446;
      phases CN;
      nominal_voltage  240;
      };


object load {
      name LOAD_8490116;
      parent FDR_4880_LV_SP_5335446;
      phases CN;
      nominal_voltage  240;
      base_power_C Load_4880.result;
      power_fraction_C 1;
      current_fraction_C 0;
      impedance_fraction_C 0;
      power_pf_C L_pf_Head80784.output;
      current_pf_C 1;
      impedance_pf_C 1;
      
      // Customer Trial Appended Data //
      ausgrid_sa1 11103123334;
      ausgrid_annual_consumption 8573.7625467;
      ausgrid_annual_consumption_with_control_load 10872.176183;
      ausgrid_simple_cell 26;
      ausgrid_elec_band_residential 2;
      ausgrid_elec_band_business 0;
      ausgrid_unit 0;
      ausgrid_income_band 1;
      ausgrid_gas_band 1;
      ausgrid_climate_zone 5;
      ausgrid_controlled_load 1;
      ausgrid_generation 0;
      };


object overhead_line {
      name FDR_4880_LV_NODE_020-FDR_4880_LV_SP_5335447;
      phases BN;
      from FDR_4880_LV_NODE_020;
      to FDR_4880_LV_SP_5335447;
      length 16.5 m;
      configuration conf_OHLine_600;
      };



object meter {
      name FDR_4880_LV_SP_5335447;
      phases BN;
      nominal_voltage  240;
      };


object load {
      name LOAD_8490108;
      parent FDR_4880_LV_SP_5335447;
      phases BN;
      nominal_voltage  240;
      base_power_B Load_4880.result;
      power_fraction_B 1;
      current_fraction_B 0;
      impedance_fraction_B 0;
      power_pf_B L_pf_Head80784.output;
      current_pf_B 1;
      impedance_pf_B 1;
      
      // Customer Trial Appended Data //
      ausgrid_sa1 11103123334;
      ausgrid_annual_consumption 7544.965;
      ausgrid_annual_consumption_with_control_load 10085.70125;
      ausgrid_simple_cell 26;
      ausgrid_elec_band_residential 2;
      ausgrid_elec_band_business 0;
      ausgrid_unit 0;
      ausgrid_income_band 1;
      ausgrid_gas_band 1;
      ausgrid_climate_zone 5;
      ausgrid_controlled_load 1;
      ausgrid_generation 0;
      };


object overhead_line {
      name FDR_4880_LV_NODE_020-FDR_4880_LV_NODE_021_1;
      phases ABCN;
      from FDR_4880_LV_NODE_020;
      to FDR_4880_LV_NODE_021_1;
      length 35.5 m;
      configuration conf_OHLine_51027;
      };



object meter {
      name FDR_4880_LV_NODE_021_1;
      phases ABCN;
      nominal_voltage  240;
      };


object overhead_line {
      name FDR_4880_LV_NODE_021_1-FDR_4880_LV_SP_5335422;
      phases BN;
      from FDR_4880_LV_NODE_021_1;
      to FDR_4880_LV_SP_5335422;
      length 29.1 m;
      configuration conf_OHLine_600;
      };



object meter {
      name FDR_4880_LV_SP_5335422;
      phases BN;
      nominal_voltage  240;
      };


object load {
      name LOAD_8490234;
      parent FDR_4880_LV_SP_5335422;
      phases BN;
      nominal_voltage  240;
      base_power_B Load_4880.result;
      power_fraction_B 1;
      current_fraction_B 0;
      impedance_fraction_B 0;
      power_pf_B L_pf_Head80784.output;
      current_pf_B 1;
      impedance_pf_B 1;
      
      // Customer Trial Appended Data //
      ausgrid_sa1 11103123334;
      ausgrid_annual_consumption 4787.8863636;
      ausgrid_annual_consumption_with_control_load 6999.6568182;
      ausgrid_simple_cell 25;
      ausgrid_elec_band_residential 1;
      ausgrid_elec_band_business 0;
      ausgrid_unit 0;
      ausgrid_income_band 1;
      ausgrid_gas_band 1;
      ausgrid_climate_zone 5;
      ausgrid_controlled_load 1;
      ausgrid_generation 0;
      };


object overhead_line {
      name FDR_4880_LV_NODE_021_1-FDR_4880_LV_NODE_022_2;
      phases ABCN;
      from FDR_4880_LV_NODE_021_1;
      to FDR_4880_LV_NODE_022_2;
      length 38.8 m;
      configuration conf_OHLine_51027;
      };



object meter {
      name FDR_4880_LV_NODE_022_2;
      phases ABCN;
      nominal_voltage  240;
      };


object overhead_line {
      name FDR_4880_LV_NODE_022_2-FDR_4880_LV_NODE_023_2;
      phases ABCN;
      from FDR_4880_LV_NODE_022_2;
      to FDR_4880_LV_NODE_023_2;
      length 35.2 m;
      configuration conf_OHLine_51027;
      };



object meter {
      name FDR_4880_LV_NODE_023_2;
      phases ABCN;
      nominal_voltage  240;
      };


object overhead_line {
      name FDR_4880_LV_NODE_023_2-FDR_4880_LV_SP_5335416;
      phases AN;
      from FDR_4880_LV_NODE_023_2;
      to FDR_4880_LV_SP_5335416;
      length 37.2 m;
      configuration conf_OHLine_57018;
      };



object meter {
      name FDR_4880_LV_SP_5335416;
      phases AN;
      nominal_voltage  240;
      };


object load {
      name LOAD_8490202;
      parent FDR_4880_LV_SP_5335416;
      phases AN;
      nominal_voltage  240;
      base_power_A Load_4880.result;
      power_fraction_A 1;
      current_fraction_A 0;
      impedance_fraction_A 0;
      power_pf_A L_pf_Head80784.output;
      current_pf_A 1;
      impedance_pf_A 1;
      
      // Customer Trial Appended Data //
      ausgrid_sa1 11103123336;
      ausgrid_annual_consumption 1840.0731707;
      ausgrid_annual_consumption_with_control_load 3289.2439024;
      ausgrid_simple_cell 25;
      ausgrid_elec_band_residential 1;
      ausgrid_elec_band_business 0;
      ausgrid_unit 0;
      ausgrid_income_band 1;
      ausgrid_gas_band 1;
      ausgrid_climate_zone 5;
      ausgrid_controlled_load 1;
      ausgrid_generation 0;
      };


object overhead_line {
      name FDR_4880_LV_NODE_023_2-FDR_4880_LV_SP_5335435;
      phases AN;
      from FDR_4880_LV_NODE_023_2;
      to FDR_4880_LV_SP_5335435;
      length 27.3 m;
      configuration conf_OHLine_600;
      };



object meter {
      name FDR_4880_LV_SP_5335435;
      phases AN;
      nominal_voltage  240;
      };


object load {
      name LOAD_8490166;
      parent FDR_4880_LV_SP_5335435;
      phases AN;
      nominal_voltage  240;
      base_power_A Load_4880.result;
      power_fraction_A 1;
      current_fraction_A 0;
      impedance_fraction_A 0;
      power_pf_A L_pf_Head80784.output;
      current_pf_A 1;
      impedance_pf_A 1;
      
      // Customer Trial Appended Data //
      ausgrid_sa1 11103123334;
      ausgrid_annual_consumption 5584.4191781;
      ausgrid_annual_consumption_with_control_load 5584.4191781;
      ausgrid_simple_cell 26;
      ausgrid_elec_band_residential 2;
      ausgrid_elec_band_business 0;
      ausgrid_unit 0;
      ausgrid_income_band 1;
      ausgrid_gas_band 1;
      ausgrid_climate_zone 5;
      ausgrid_controlled_load 0;
      ausgrid_generation 0;
      };


object overhead_line {
      name FDR_4880_LV_NODE_023_2-FDR_4880_LV_SP_5335418;
      phases CN;
      from FDR_4880_LV_NODE_023_2;
      to FDR_4880_LV_SP_5335418;
      length 28.9 m;
      configuration conf_OHLine_600;
      };



object meter {
      name FDR_4880_LV_SP_5335418;
      phases CN;
      nominal_voltage  240;
      };


object load {
      name LOAD_8490212;
      parent FDR_4880_LV_SP_5335418;
      phases CN;
      nominal_voltage  240;
      base_power_C Load_4880.result;
      power_fraction_C 1;
      current_fraction_C 0;
      impedance_fraction_C 0;
      power_pf_C L_pf_Head80784.output;
      current_pf_C 1;
      impedance_pf_C 1;
      
      // Customer Trial Appended Data //
      ausgrid_sa1 11103123336;
      ausgrid_annual_consumption 5827.34;
      ausgrid_annual_consumption_with_control_load 5827.34;
      ausgrid_simple_cell 26;
      ausgrid_elec_band_residential 2;
      ausgrid_elec_band_business 0;
      ausgrid_unit 0;
      ausgrid_income_band 1;
      ausgrid_gas_band 1;
      ausgrid_climate_zone 5;
      ausgrid_controlled_load 0;
      ausgrid_generation 1;
      };


object inverter {
      name DG_8490212;
      parent FDR_4880_LV_SP_5335418;
      phases CN;
      generator_mode CONSTANT_PF;
      generator_status ONLINE;
      inverter_type PWM;
      power_factor 0.9;
...